2024_89_CemigReconfigurationCases/1_SEsCemig/NOG02/NOG02Ramais.dss
new line.RML10025156 bus1=BBT1393435.1.2.0,bus2=RML1010025156.1.2.0,Phases=2,Linecode=CABBTG05_4_2,Length=0.017000000,Units=km
new line.RML10025625 bus1=BBT2925378.1.2.0,bus2=RML1010025625.1.2.0,Phases=2,Linecode=CABBTG05_4_2,Length=0.017000000,Units=km
new line.RML10025709 bus1=BBT4250905.1.0,bus2=RML1010025709.1.0,Phases=1,Linecode=CABBTG02_4_1,Length=0.017000000,Units=km
new line.RML10026171 bus1=BBT104746770.1.2.0,bus2=RML1010026171.1.2.0,Phases=2,Linecode=CABBT808_4_2,Length=0.017000000,Units=km
new line.RML10026178 bus1=BBT4917753.1.2.0,bus2=RML1010026178.1.2.0,Phases=2,Linecode=CABBTG05_4_2,Length=0.017000000,Units=km
new line.RML10026192 bus1=BBT1427847.1.2.0,bus2=RML1010026192.1.2.0,Phases=2,Linecode=CABBTG05_4_2,Length=0.017000000,Units=km
new line.RML10026304 bus1=BBT1426104.1.0,bus2=RML1010026304.1.0,Phases=1,Linecode=CABBTG02_4_1,Length=0.017000000,Units=km
new line.RML10026682 bus1=BBT1424473.1.2.3.0,bus2=RML1010026682.1.2.3.0,Phases=3,Linecode=CABBTG06_4_3,Length=0.017000000,Units=km
new line.RML10026689 bus1=BBT1401044.1.2.0,bus2=RML1010026689.1.2.0,Phases=2,Linecode=CABBTG05_4_2,Length=0.017000000,Units=km
new line.RML10026703 bus1=BBT1449701.1.0,bus2=RML1010026703.1.0,Phases=1,Linecode=CABBTG02_4_1,Length=0.017000000,Units=km
new line.RML10026710 bus1=BBT1401044.1.2.0,bus2=RML1010026710.1.2.0,Phases=2,Linecode=CABBTG04_4_2,Length=0.017000000,Units=km
new line.RML10026731 bus1=BBT1488523.1.2.0,bus2=RML1010026731.1.2.0,Phases=2,Linecode=CABBTG05_4_2,Length=0.017000000,Units=km
new line.RML10026955 bus1=BBT4247335.1.2.3.0,bus2=RML1010026955.1.2.3.0,Phases=3,Linecode=CABBTG06_4_3,Length=0.017000000,Units=km
new line.RML10044472 bus1=BBT1010913.1.2.3.0,bus2=RML1010044472.1.2.3.0,Phases=3,Linecode=CABBTG06_4_3,Length=0.017000000,Units=km
new line.RML10044996 bus1=BBT210365.1.2.0,bus2=RML1010044996.1.2.0,Phases=2,Linecode=CABBTG04_4_2,Length=0.017000000,Units=km
new line.RML10045826 bus1=BBT1445459.1.0,bus2=RML1010045826.1.0,Phases=1,Linecode=CABBTG02_4_1,Length=0.017000000,Units=km
new line.RML10045827 bus1=BBT1445459.1.0,bus2=RML1010045827.1.0,Phases=1,Linecode=CABBTG02_4_1,Length=0.017000000,Units=km
new line.RML10047455 bus1=BBT148376807.1.2.3.0,bus2=RML1010047455.1.2.3.0,Phases=3,Linecode=CABBTG09_4_3,Length=0.017000000,Units=km
new line.RML10060532 bus1=BBT1464499.1.2.0,bus2=RML1010060532.1.2.0,Phases=2,Linecode=CABBTG05_4_2,Length=0.017000000,Units=km
new line.RML10060597 bus1=BBT1463582.1.2.0,bus2=RML1010060597.1.2.0,Phases=2,Linecode=CABBTG05_4_2,Length=0.017000000,Units=km
new line.RML10075457 bus1=BBT1431067.1.2.0,bus2=RML1010075457.1.2.0,Phases=2,Linecode=CABBTG05_4_2,Length=0.017000000,Units=km
new line.RML10075468 bus1=BBT4038672.1.2.0,bus2=RML1010075468.1.2.0,Phases=2,Linecode=CABBTG05_4_2,Length=0.017000000,Units=km
new line.RML10075471 bus1=BBT3623145.1.2.0,bus2=RML1010075471.1.2.0,Phases=2,Linecode=CABBTG05_4_2,Length=0.017000000,Units=km
new line.RML10075472 bus1=BBT1423563.1.0,bus2=RML1010075472.1.0,Phases=1,Linecode=CABBTG02_4_1,Length=0.017000000,Units=km
new line.RML10075473 bus1=BBT1439670.1.2.0,bus2=RML1010075473.1.2.0,Phases=2,Linecode=CABBTG05_4_2,Length=0.017000000,Units=km
new line.RML10075474 bus1=BBT3016434.1.2.0,bus2=RML1010075474.1.2.0,Phases=2,Linecode=CABBTG05_4_2,Length=0.017000000,Units=km
new line.RML10075475 bus1=BBT3016147.1.2.0,bus2=RML1010075475.1.2.0,Phases=2,Linecode=CABBTG05_4_2,Length=0.017000000,Units=km
new line.RML10075476 bus1=BBT3016196.1.2.0,bus2=RML1010075476.1.2.0,Phases=2,Linecode=CABBTG05_4_2,Length=0.017000000,Units=km
new line.RML10075477 bus1=BBT1429576.1.2.0,bus2=RML1010075477.1.2.0,Phases=2,Linecode=CABBTG04_4_2,Length=0.017000000,Units=km
new line.RML10075478 bus1=BBT1429604.1.2.0,bus2=RML1010075478.1.2.0,Phases=2,Linecode=CABBTG05_4_2,Length=0.017000000,Units=km
new line.RML10075479 bus1=BBT4123057.1.0,bus2=RML1010075479.1.0,Phases=1,Linecode=CABBTG02_4_1,Length=0.017000000,Units=km
new line.RML10075480 bus1=BBT1456680.1.2.0,bus2=RML1010075480.1.2.0,Phases=2,Linecode=CABBTG05_4_2,Length=0.017000000,Units=km
new line.RML10075481 bus1=BBT3424611.1.2.0,bus2=RML1010075481.1.2.0,Phases=2,Linecode=CABBTG04_4_2,Length=0.017000000,Units=km
new line.RML10075482 bus1=BBT3424611.1.0,bus2=RML1010075482.1.0,Phases=1,Linecode=CABBTG01_4_1,Length=0.017000000,Units=km
new line.RML10075724 bus1=BBT4737132.2.0,bus2=RML1010075724.2.0,Phases=1,Linecode=CABBTG02_4_1,Length=0.017000000,Units=km
new line.RML10075726 bus1=BBT1490525.1.2.0,bus2=RML1010075726.1.2.0,Phases=2,Linecode=CABBTG04_4_2,Length=0.017000000,Units=km
new line.RML10076241 bus1=BBT31974028.1.2.0,bus2=RML1010076241.1.2.0,Phases=2,Linecode=CABBTG05_4_2,Length=0.017000000,Units=km
new line.RML10076683 bus1=BBT994120.2.0,bus2=RML1010076683.2.0,Phases=1,Linecode=CABBTG02_4_1,Length=0.017000000,Units=km
new line.RML10076767 bus1=BBT997571.1.2.0,bus2=RML1010076767.1.2.0,Phases=2,Linecode=CABBTG05_4_2,Length=0.017000000,Units=km
new line.RML10076780 bus1=BBT1002352.1.0,bus2=RML1010076780.1.0,Phases=1,Linecode=CABBTG01_4_1,Length=0.017000000,Units=km
new line.RML10076781 bus1=BBT965364.1.0,bus2=RML1010076781.1.0,Phases=1,Linecode=CABBTG01_4_1,Length=0.017000000,Units=km
new line.RML10076784 bus1=BBT955235.1.0,bus2=RML1010076784.1.0,Phases=1,Linecode=CABBTG01_4_1,Length=0.017000000,Units=km
new line.RML10076812 bus1=BBT968430.1.0,bus2=RML1010076812.1.0,Phases=1,Linecode=CABBTG01_4_1,Length=0.017000000,Units=km
new line.RML10076825 bus1=BBT2831865.1.2.0,bus2=RML1010076825.1.2.0,Phases=2,Linecode=CABBTG04_4_2,Length=0.017000000,Units=km
new line.RML10076829 bus1=BBT2831851.1.2.0,bus2=RML1010076829.1.2.0,Phases=2,Linecode=CABBTG04_4_2,Length=0.017000000,Units=km
new line.RML10076832 bus1=BBT999853.1.2.0,bus2=RML1010076832.1.2.0,Phases=2,Linecode=CABBTG04_4_2,Length=0.017000000,Units=km
new line.RML10076834 bus1=BBT999853.1.2.0,bus2=RML1010076834.1.2.0,Phases=2,Linecode=CABBTG04_4_2,Length=0.017000000,Units=km
new line.RML10076846 bus1=BBT999832.1.0,bus2=RML1010076846.1.0,Phases=1,Linecode=CABBTG02_4_1,Length=0.017000000,Units=km
new line.RML10076859 bus1=BBT996843.1.0,bus2=RML1010076859.1.0,Phases=1,Linecode=CABBTG02_4_1,Length=0.017000000,Units=km
new line.RML10076860 bus1=BBT964391.1.0,bus2=RML1010076860.1.0,Phases=1,Linecode=CABBTG02_4_1,Length=0.017000000,Units=km
new line.RML10076863 bus1=BBT953772.1.2.0,bus2=RML1010076863.1.2.0,Phases=2,Linecode=CABBTG05_4_2,Length=0.017000000,Units=km
new line.RML10077190 bus1=BBT1448588.1.2.0,bus2=RML1010077190.1.2.0,Phases=2,Linecode=CABBTG05_4_2,Length=0.017000000,Units=km
new line.RML10077193 bus1=BBT4357179.1.2.0,bus2=RML1010077193.1.2.0,Phases=2,Linecode=CABBTG05_4_2,Length=0.017000000,Units=km
new line.RML10077197 bus1=BBT1383915.1.2.0,bus2=RML1010077197.1.2.0,Phases=2,Linecode=CABBTG05_4_2,Length=0.017000000,Units=km
new line.RML10077283 bus1=BBT1400813.1.2.0,bus2=RML1010077283.1.2.0,Phases=2,Linecode=CABBTG05_4_2,Length=0.017000000,Units=km
new line.RML10077306 bus1=BBT153112661.1.2.3.0,bus2=RML1010077306.1.2.3.0,Phases=3,Linecode=CABBTG08_4_3,Length=0.017000000,Units=km
new line.RML10077310 bus1=BBT3040262.1.3.0,bus2=RML1010077310.1.3.0,Phases=2,Linecode=CABBTG05_4_2,Length=0.017000000,Units=km
new line.RML10077333 bus1=BBT958497.1.2.0,bus2=RML1010077333.1.2.0,Phases=2,Linecode=CABBTG05_4_2,Length=0.017000000,Units=km
new line.RML10077879 bus1=BBT4694495.1.0,bus2=RML1010077879.1.0,Phases=1,Linecode=CABBTG02_4_1,Length=0.017000000,Units=km
new line.RML10077931 bus1=BBT149130421.1.0,bus2=RML1010077931.1.0,Phases=1,Linecode=CABBTG02_4_1,Length=0.017000000,Units=km
new line.RML10078081 bus1=BBT1396109.1.3.0,bus2=RML1010078081.1.3.0,Phases=2,Linecode=CABBTG05_4_2,Length=0.017000000,Units=km
new line.RML10078165 bus1=BBT1400015.1.2.0,bus2=RML1010078165.1.2.0,Phases=2,Linecode=CABBTG05_4_2,Length=0.017000000,Units=km
new line.RML10078183 bus1=BBT10953476.1.0,bus2=RML1010078183.1.0,Phases=1,Linecode=CABBTG02_4_1,Length=0.017000000,Units=km
new line.RML10078318 bus1=BBT4250660.2.0,bus2=RML1010078318.2.0,Phases=1,Linecode=CABBTG02_4_1,Length=0.017000000,Units=km
new line.RML10078319 bus1=BBT955172.1.2.0,bus2=RML1010078319.1.2.0,Phases=2,Linecode=CABBTG05_4_2,Length=0.017000000,Units=km
new line.RML10078823 bus1=BBT4694502.1.2.0,bus2=RML1010078823.1.2.0,Phases=2,Linecode=CABBTG05_4_2,Length=0.017000000,Units=km
new line.RML10088902 bus1=BBT985216.1.2.0,bus2=RML1010088902.1.2.0,Phases=2,Linecode=CABBTG05_4_2,Length=0.017000000,Units=km
new line.RML10088909 bus1=BBT983431.1.2.0,bus2=RML1010088909.1.2.0,Phases=2,Linecode=CABBTG05_4_2,Length=0.017000000,Units=km
new line.RML10088921 bus1=BBT983970.1.2.3.0,bus2=RML1010088921.1.2.3.0,Phases=3,Linecode=CABBTG06_4_3,Length=0.017000000,Units=km
new line.RML10088937 bus1=BBT2854377.1.2.0,bus2=RML1010088937.1.2.0,Phases=2,Linecode=CABBTG05_4_2,Length=0.017000000,Units=km
new line.RML10088944 bus1=BBT2873970.1.2.0,bus2=RML1010088944.1.2.0,Phases=2,Linecode=CABBTG05_4_2,Length=0.017000000,Units=km
new line.RML10088948 bus1=BBT2873970.1.2.0,bus2=RML1010088948.1.2.0,Phases=2,Linecode=CABBTG05_4_2,Length=0.017000000,Units=km
new line.RML10088951 bus1=BBT2873998.1.2.0,bus2=RML1010088951.1.2.0,Phases=2,Linecode=CABBTG05_4_2,Length=0.017000000,Units=km
new line.RML10088958 bus1=BBT1011529.1.2.0,bus2=RML1010088958.1.2.0,Phases=2,Linecode=CABBTG05_4_2,Length=0.017000000,Units=km
new line.RML10089007 bus1=BBT979868.1.2.3.0,bus2=RML1010089007.1.2.3.0,Phases=3,Linecode=CABBTG06_4_3,Length=0.017000000,Units=km
new line.RML10090522 bus1=BBT1372680.1.2.3.0,bus2=RML1010090522.1.2.3.0,Phases=3,Linecode=CABBTG08_4_3,Length=0.020000000,Units=km
new line.RML10103267 bus1=BBT149490684.1.2.0,bus2=RML1010103267.1.2.0,Phases=2,Linecode=CABBTG05_4_2,Length=0.017000000,Units=km
new line.RML10104973 bus1=BBT988912.1.2.0,bus2=RML1010104973.1.2.0,Phases=2,Linecode=CABBTG05_4_2,Length=0.017000000,Units=km
new line.RML10104982 bus1=BBT1000602.1.2.0,bus2=RML1010104982.1.2.0,Phases=2,Linecode=CABBTG05_4_2,Length=0.017000000,Units=km
new line.RML10104984 bus1=BBT959743.1.2.0,bus2=RML1010104984.1.2.0,Phases=2,Linecode=CABBTG05_4_2,Length=0.017000000,Units=km
new line.RML10104988 bus1=BBT1931357.1.2.0,bus2=RML1010104988.1.2.0,Phases=2,Linecode=CABBTG05_4_2,Length=0.017000000,Units=km
new line.RML10104992 bus1=BBT952071.1.2.0,bus2=RML1010104992.1.2.0,Phases=2,Linecode=CABBTG05_4_2,Length=0.017000000,Units=km
new line.RML10114332 bus1=BBT1443233.1.2.0,bus2=RML1010114332.1.2.0,Phases=2,Linecode=CABBTG05_4_2,Length=0.017000000,Units=km
new line.RML10114350 bus1=BBT1446117.1.3.0,bus2=RML1010114350.1.3.0,Phases=2,Linecode=CABBTG05_4_2,Length=0.017000000,Units=km
new line.RML10114353 bus1=BBT1470092.1.2.0,bus2=RML1010114353.1.2.0,Phases=2,Linecode=CABBTG05_4_2,Length=0.017000000,Units=km
new line.RML10114360 bus1=BBT1462406.1.2.0,bus2=RML1010114360.1.2.0,Phases=2,Linecode=CABBTG05_4_2,Length=0.017000000,Units=km
new line.RML10114368 bus1=BBT976095.1.2.0,bus2=RML1010114368.1.2.0,Phases=2,Linecode=CABBTG05_4_2,Length=0.017000000,Units=km
new line.RML10115159 bus1=BBT1002625.1.2.0,bus2=RML1010115159.1.2.0,Phases=2,Linecode=CABBTG05_4_2,Length=0.017000000,Units=km
new line.RML10115182 bus1=BBT961822.1.0,bus2=RML1010115182.1.0,Phases=1,Linecode=CABBTG02_4_1,Length=0.017000000,Units=km
new line.RML10115251 bus1=BBT51280791.1.2.0,bus2=RML1010115251.1.2.0,Phases=2,Linecode=CABBTG05_4_2,Length=0.017000000,Units=km
new line.RML10115318 bus1=BBT4587458.2.0,bus2=RML1010115318.2.0,Phases=1,Linecode=CABBTG02_4_1,Length=0.017000000,Units=km
new line.RML10115336 bus1=BBT3336124.1.2.0,bus2=RML1010115336.1.2.0,Phases=2,Linecode=CABBTG05_4_2,Length=0.017000000,Units=km
new line.RML10115342 bus1=BBT988961.1.2.0,bus2=RML1010115342.1.2.0,Phases=2,Linecode=CABBTG05_4_2,Length=0.017000000,Units=km
new line.RML10115349 bus1=BBT987603.1.2.0,bus2=RML1010115349.1.2.0,Phases=2,Linecode=CABBTG05_4_2,Length=0.017000000,Units=km
new line.RML10115350 bus1=BBT4587465.1.0,bus2=RML1010115350.1.0,Phases=1,Linecode=CABBTG02_4_1,Length=0.017000000,Units=km
new line.RML10115357 bus1=BBT4420025.1.0,bus2=RML1010115357.1.0,Phases=1,Linecode=CABBTG02_4_1,Length=0.017000000,Units=km
new line.RML10115359 bus1=BBT1483826.1.0,bus2=RML1010115359.1.0,Phases=1,Linecode=CABBTG02_4_1,Length=0.017000000,Units=km
new line.RML10115361 bus1=BBT3584953.1.2.3.0,bus2=RML1010115361.1.2.3.0,Phases=3,Linecode=CABBTG06_4_3,Length=0.017000000,Units=km
new line.RML10115363 bus1=BBT1466767.1.2.3.0,bus2=RML1010115363.1.2.3.0,Phases=3,Linecode=CABBTG07_4_3,Length=0.017000000,Units=km
new line.RML10115364 bus1=BBT1475496.1.2.0,bus2=RML1010115364.1.2.0,Phases=2,Linecode=CABBTG05_4_2,Length=0.017000000,Units=km
new line.RML10115365 bus1=BBT957517.1.2.3.0,bus2=RML1010115365.1.2.3.0,Phases=3,Linecode=CABBTG06_4_3,Length=0.017000000,Units=km
new line.RML10115611 bus1=BBT1423780.1.2.0,bus2=RML1010115611.1.2.0,Phases=2,Linecode=CABBTG05_4_2,Length=0.017000000,Units=km
new line.RML10117858 bus1=BBT1456225.1.2.0,bus2=RML1010117858.1.2.0,Phases=2,Linecode=CABBTG05_4_2,Length=0.017000000,Units=km
new line.RML10117891 bus1=BBT1427091.1.2.0,bus2=RML1010117891.1.2.0,Phases=2,Linecode=CABBTG05_4_2,Length=0.017000000,Units=km
new line.RML10118093 bus1=BBT955081.1.2.0,bus2=RML1010118093.1.2.0,Phases=2,Linecode=CABBTG05_4_2,Length=0.017000000,Units=km
new line.RML10118096 bus1=BBT975780.2.0,bus2=RML1010118096.2.0,Phases=1,Linecode=CABBTG02_4_1,Length=0.017000000,Units=km
new line.RML10118111 bus1=BBT4044874.1.2.0,bus2=RML1010118111.1.2.0,Phases=2,Linecode=CABBTG05_4_2,Length=0.017000000,Units=km
new line.RML10118131 bus1=BBT1432257.1.0,bus2=RML1010118131.1.0,Phases=1,Linecode=CABBTG02_4_1,Length=0.017000000,Units=km
new line.RML10118144 bus1=BBT1429471.1.2.0,bus2=RML1010118144.1.2.0,Phases=2,Linecode=CABBTG05_4_2,Length=0.017000000,Units=km
new line.RML10118165 bus1=BBT1431921.1.2.0,bus2=RML1010118165.1.2.0,Phases=2,Linecode=CABBTG05_4_2,Length=0.017000000,Units=km
new line.RML10118166 bus1=BBT1431921.1.2.0,bus2=RML1010118166.1.2.0,Phases=2,Linecode=CABBTG05_4_2,Length=0.017000000,Units=km
new line.RML10118181 bus1=BBT1427091.1.2.0,bus2=RML1010118181.1.2.0,Phases=2,Linecode=CABBTG05_4_2,Length=0.017000000,Units=km
new line.RML10118185 bus1=BBT1423752.1.2.0,bus2=RML1010118185.1.2.0,Phases=2,Linecode=CABBTG05_4_2,Length=0.017000000,Units=km
new line.RML10118187 bus1=BBT1439852.1.2.0,bus2=RML1010118187.1.2.0,Phases=2,Linecode=CABBTG05_4_2,Length=0.017000000,Units=km
new line.RML10050491 bus1=BBT3368177.1.2.0,bus2=RML1010050491.1.2.0,Phases=2,Linecode=CABBTG04_4_2,Length=0.017000000,Units=km
new line.RML10064050 bus1=BBT2963878.1.2.0,bus2=RML1010064050.1.2.0,Phases=2,Linecode=CABBTG04_4_2,Length=0.017000000,Units=km
new line.RML10064054 bus1=BBT4587458.1.0,bus2=RML1010064054.1.0,Phases=1,Linecode=CABBTG02_4_1,Length=0.017000000,Units=km
new line.RML10064065 bus1=BBT953793.2.0,bus2=RML1010064065.2.0,Phases=1,Linecode=CABBTG02_4_1,Length=0.017000000,Units=km
new line.RML10064084 bus1=BBT3367918.1.2.0,bus2=RML1010064084.1.2.0,Phases=2,Linecode=CABBTG04_4_2,Length=0.017000000,Units=km
new line.RML10065038 bus1=BBT1430710.1.0,bus2=RML1010065038.1.0,Phases=1,Linecode=CABBTG02_4_1,Length=0.017000000,Units=km
new line.RML10065040 bus1=BBT1426090.1.0,bus2=RML1010065040.1.0,Phases=1,Linecode=CABBTG02_4_1,Length=0.017000000,Units=km
new line.RML10065044 bus1=BBT1426090.1.2.0,bus2=RML1010065044.1.2.0,Phases=2,Linecode=CABBTG13_4_2,Length=0.017000000,Units=km
new line.RML10065046 bus1=BBT1423752.1.2.0,bus2=RML1010065046.1.2.0,Phases=2,Linecode=CABBTG04_4_2,Length=0.017000000,Units=km
new line.RML10065347 bus1=BBT1482433.1.2.0,bus2=RML1010065347.1.2.0,Phases=2,Linecode=CABBTG05_4_2,Length=0.017000000,Units=km
new line.RML10065349 bus1=BBT1495271.1.2.0,bus2=RML1010065349.1.2.0,Phases=2,Linecode=CABBTG05_4_2,Length=0.017000000,Units=km
new line.RML10065357 bus1=BBT1476469.1.2.0,bus2=RML1010065357.1.2.0,Phases=2,Linecode=CABBTG04_4_2,Length=0.017000000,Units=km
new line.RML10065360 bus1=BBT1491694.1.0,bus2=RML1010065360.1.0,Phases=1,Linecode=CABBTG02_4_1,Length=0.017000000,Units=km
new line.RML10065365 bus1=BBT1491505.2.0,bus2=RML1010065365.2.0,Phases=1,Linecode=CABBTG02_4_1,Length=0.017000000,Units=km
new line.RML10065367 bus1=BBT954878.1.2.0,bus2=RML1010065367.1.2.0,Phases=2,Linecode=CABBTG05_4_2,Length=0.017000000,Units=km
new line.RML10065369 bus1=BBT957489.1.2.3.0,bus2=RML1010065369.1.2.3.0,Phases=3,Linecode=CABBTG06_4_3,Length=0.017000000,Units=km
new line.RML10065377 bus1=BBT959050.1.0,bus2=RML1010065377.1.0,Phases=1,Linecode=CABBTG02_4_1,Length=0.017000000,Units=km
new line.RML10065378 bus1=BBT1466711.1.2.0,bus2=RML1010065378.1.2.0,Phases=2,Linecode=CABBTG05_4_2,Length=0.017000000,Units=km
new line.RML10065380 bus1=BBT1488698.1.0,bus2=RML1010065380.1.0,Phases=1,Linecode=CABBTG02_4_1,Length=0.017000000,Units=km
new line.RML10065383 bus1=BBT4476802.1.0,bus2=RML1010065383.1.0,Phases=1,Linecode=CABBTG02_4_1,Length=0.017000000,Units=km
new line.RML10065408 bus1=BBT953800.1.2.0,bus2=RML1010065408.1.2.0,Phases=2,Linecode=CABBTG05_4_2,Length=0.017000000,Units=km
new line.RML10079328 bus1=BBT1817901.1.2.0,bus2=RML1010079328.1.2.0,Phases=2,Linecode=CABBTG05_4_2,Length=0.017000000,Units=km
new line.RML10079542 bus1=BBT1011424.2.3.0,bus2=RML1010079542.2.3.0,Phases=2,Linecode=CABBTG05_4_2,Length=0.017000000,Units=km
new line.RML10079557 bus1=BBT4734654.1.2.3.0,bus2=RML1010079557.1.2.3.0,Phases=3,Linecode=CABBTG06_4_3,Length=0.017000000,Units=km
new line.RML10079587 bus1=BBT1009793.1.2.0,bus2=RML1010079587.1.2.0,Phases=2,Linecode=CABBTG05_4_2,Length=0.017000000,Units=km
new line.RML10079606 bus1=BBT4587458.2.0,bus2=RML1010079606.2.0,Phases=1,Linecode=CABBTG02_4_1,Length=0.017000000,Units=km
new line.RML10080314 bus1=BBT3143267.1.2.0,bus2=RML1010080314.1.2.0,Phases=2,Linecode=CABBTG05_4_2,Length=0.017000000,Units=km
new line.RML10080327 bus1=BBT1449869.1.2.0,bus2=RML1010080327.1.2.0,Phases=2,Linecode=CABBTG04_4_2,Length=0.017000000,Units=km
new line.RML10080329 bus1=BBT4126158.1.2.0,bus2=RML1010080329.1.2.0,Phases=2,Linecode=CABBTG04_4_2,Length=0.017000000,Units=km
new line.RML10080334 bus1=BBT4357347.1.2.0,bus2=RML1010080334.1.2.0,Phases=2,Linecode=CABBTG05_4_2,Length=0.017000000,Units=km
new line.RML10080338 bus1=BBT2903650.1.2.0,bus2=RML1010080338.1.2.0,Phases=2,Linecode=CABBTG13_4_2,Length=0.017000000,Units=km
new line.RML10080372 bus1=BBT1451843.1.2.0,bus2=RML1010080372.1.2.0,Phases=2,Linecode=CABBTG05_4_2,Length=0.017000000,Units=km
new line.RML10080402 bus1=BBT1443793.1.0,bus2=RML1010080402.1.0,Phases=1,Linecode=CABBTG02_4_1,Length=0.017000000,Units=km
new line.RML10080404 bus1=BBT4137323.1.0,bus2=RML1010080404.1.0,Phases=1,Linecode=CABBTG02_4_1,Length=0.017000000,Units=km
new line.RML10080410 bus1=BBT2825138.1.0,bus2=RML1010080410.1.0,Phases=1,Linecode=CABBTG02_4_1,Length=0.017000000,Units=km
new line.RML10080414 bus1=BBT25970660.1.0,bus2=RML1010080414.1.0,Phases=1,Linecode=CABBTG02_4_1,Length=0.017000000,Units=km
new line.RML10080421 bus1=BBT1486031.1.2.0,bus2=RML1010080421.1.2.0,Phases=2,Linecode=CABBTG05_4_2,Length=0.017000000,Units=km
new line.RML10080428 bus1=BBT1488194.1.2.0,bus2=RML1010080428.1.2.0,Phases=2,Linecode=CABBTG13_4_2,Length=0.017000000,Units=km
new line.RML10080430 bus1=BBT3381890.1.2.0,bus2=RML1010080430.1.2.0,Phases=2,Linecode=CABBTG05_4_2,Length=0.017000000,Units=km
new line.RML10080433 bus1=BBT3381890.1.0,bus2=RML1010080433.1.0,Phases=1,Linecode=CABBTG01_4_1,Length=0.017000000,Units=km
new line.RML10080436 bus1=BBT1457387.1.2.0,bus2=RML1010080436.1.2.0,Phases=2,Linecode=CABBTG05_4_2,Length=0.017000000,Units=km
new line.RML10080960 bus1=BBT988450.1.2.3.0,bus2=RML1010080960.1.2.3.0,Phases=3,Linecode=CABBTG06_4_3,Length=0.017000000,Units=km
new line.RML10080961 bus1=BBT3368219.1.2.0,bus2=RML1010080961.1.2.0,Phases=2,Linecode=CABBTG05_4_2,Length=0.017000000,Units=km
new line.RML10081558 bus1=BBT1823550.1.2.3.0,bus2=RML1010081558.1.2.3.0,Phases=3,Linecode=CABBTG06_4_3,Length=0.017000000,Units=km
new line.RML10082397 bus1=BBT958714.2.0,bus2=RML1010082397.2.0,Phases=1,Linecode=CABBTG02_4_1,Length=0.017000000,Units=km
new line.RML10091468 bus1=BBT149197715.1.2.3.0,bus2=RML1010091468.1.2.3.0,Phases=3,Linecode=CABBTG09_4_3,Length=0.017000000,Units=km
new line.RML10093021 bus1=BBT1435449.1.2.3.0,bus2=RML1010093021.1.2.3.0,Phases=3,Linecode=CABBTG06_4_3,Length=0.030000000,Units=km
new line.RML10093843 bus1=BBT1015330.1.2.0,bus2=RML1010093843.1.2.0,Phases=2,Linecode=CABBTG13_4_2,Length=0.017000000,Units=km
new line.RML10093849 bus1=BBT1002618.1.2.0,bus2=RML1010093849.1.2.0,Phases=2,Linecode=CABBTG05_4_2,Length=0.017000000,Units=km
new line.RML10093966 bus1=BBT5384933.1.2.0,bus2=RML1010093966.1.2.0,Phases=2,Linecode=CABBTG05_4_2,Length=0.017000000,Units=km
new line.RML10093974 bus1=BBT1011970.1.2.0,bus2=RML1010093974.1.2.0,Phases=2,Linecode=CABBTG05_4_2,Length=0.017000000,Units=km
new line.RML10093977 bus1=BBT1011214.1.2.0,bus2=RML1010093977.1.2.0,Phases=2,Linecode=CABBTG05_4_2,Length=0.017000000,Units=km
new line.RML10094569 bus1=BBT41398779.1.2.3.0,bus2=RML1010094569.1.2.3.0,Phases=3,Linecode=CABBTG06_4_3,Length=0.017000000,Units=km
new line.RML10106864 bus1=BBT2874012.1.2.0,bus2=RML1010106864.1.2.0,Phases=2,Linecode=CABBTG05_4_2,Length=0.017000000,Units=km
new line.RML10106941 bus1=BBT978153.1.2.0,bus2=RML1010106941.1.2.0,Phases=2,Linecode=CABBTG05_4_2,Length=0.017000000,Units=km
new line.RML10106944 bus1=BBT994680.1.2.0,bus2=RML1010106944.1.2.0,Phases=2,Linecode=CABBTG05_4_2,Length=0.017000000,Units=km
new line.RML10106946 bus1=BBT988996.1.2.0,bus2=RML1010106946.1.2.0,Phases=2,Linecode=CABBTG05_4_2,Length=0.017000000,Units=km
new line.RML10036790 bus1=BBT4247321.1.2.3.0,bus2=RML1010036790.1.2.3.0,Phases=3,Linecode=CABBTG07_4_3,Length=0.017000000,Units=km
new line.RML10039587 bus1=BBT2832194.1.0,bus2=RML1010039587.1.0,Phases=1,Linecode=CABBTG02_4_1,Length=0.017000000,Units=km
new line.RML10039688 bus1=BBT1435540.1.2.0,bus2=RML1010039688.1.2.0,Phases=2,Linecode=CABBTG05_4_2,Length=0.017000000,Units=km
new line.RML10039692 bus1=BBT9357217.1.2.3.0,bus2=RML1010039692.1.2.3.0,Phases=3,Linecode=CABBTG06_4_3,Length=0.017000000,Units=km
new line.RML10039763 bus1=BBT71462477.1.2.0,bus2=RML1010039763.1.2.0,Phases=2,Linecode=CABBT808_4_2,Length=0.017000000,Units=km
new line.RML10039785 bus1=BBT3595047.1.2.0,bus2=RML1010039785.1.2.0,Phases=2,Linecode=CABBTG04_4_2,Length=0.017000000,Units=km
new line.RML10039823 bus1=BBT991026.1.0,bus2=RML1010039823.1.0,Phases=1,Linecode=CABBTG02_4_1,Length=0.017000000,Units=km
new line.RML10039855 bus1=BBT1478961.1.2.3.0,bus2=RML1010039855.1.2.3.0,Phases=3,Linecode=CABBTG06_4_3,Length=0.017000000,Units=km
new line.RML10039911 bus1=BBT1002478.1.2.0,bus2=RML1010039911.1.2.0,Phases=2,Linecode=CABBTG05_4_2,Length=0.017000000,Units=km
new line.RML10039917 bus1=BBT2832852.1.0,bus2=RML1010039917.1.0,Phases=1,Linecode=CABBTG02_4_1,Length=0.017000000,Units=km
new line.RML10039942 bus1=BBT1483805.1.0,bus2=RML1010039942.1.0,Phases=1,Linecode=CABBTG02_4_1,Length=0.017000000,Units=km
new line.RML10040117 bus1=BBT2823101.1.2.3.0,bus2=RML1010040117.1.2.3.0,Phases=3,Linecode=CABBTG12_4_3,Length=0.017000000,Units=km
new line.RML10052264 bus1=BBT148505220.1.2.3.0,bus2=RML1010052264.1.2.3.0,Phases=3,Linecode=CABBTG06_4_3,Length=0.017000000,Units=km
new line.RML10053965 bus1=BBT135322147.1.2.3.0,bus2=RML1010053965.1.2.3.0,Phases=3,Linecode=CABBTG08_4_3,Length=0.017000000,Units=km
new line.RML10085289 bus1=BBT3345679.1.2.0,bus2=RML1010085289.1.2.0,Phases=2,Linecode=CABBTG05_4_2,Length=0.017000000,Units=km
new line.RML10100173 bus1=BBT1436198.1.2.0,bus2=RML1010100173.1.2.0,Phases=2,Linecode=CABBTG05_4_2,Length=0.017000000,Units=km
new line.RML10100500 bus1=BBT983452.1.2.3.0,bus2=RML1010100500.1.2.3.0,Phases=3,Linecode=CABBTG06_4_3,Length=0.017000000,Units=km
new line.RML10100531 bus1=BBT79479591.1.0,bus2=RML1010100531.1.0,Phases=1,Linecode=CABBTG02_4_1,Length=0.017000000,Units=km
new line.RML10100538 bus1=BBT4850819.1.2.3.0,bus2=RML1010100538.1.2.3.0,Phases=3,Linecode=CABBTG06_4_3,Length=0.017000000,Units=km
new line.RML10100597 bus1=BBT1447419.1.2.0,bus2=RML1010100597.1.2.0,Phases=2,Linecode=CABBTG05_4_2,Length=0.017000000,Units=km
new line.RML10100617 bus1=BBT1443597.1.2.3.0,bus2=RML1010100617.1.2.3.0,Phases=3,Linecode=CABBTG06_4_3,Length=0.017000000,Units=km
new line.RML10100622 bus1=BBT1424396.1.0,bus2=RML1010100622.1.0,Phases=1,Linecode=CABBTG02_4_1,Length=0.017000000,Units=km
new line.RML10100626 bus1=BBT1437269.1.0,bus2=RML1010100626.1.0,Phases=1,Linecode=CABBTG02_4_1,Length=0.017000000,Units=km
new line.RML10101252 bus1=BBT4754499.1.2.0,bus2=RML1010101252.1.2.0,Phases=2,Linecode=CABBTG05_4_2,Length=0.017000000,Units=km
new line.RML10101255 bus1=BBT4754282.1.2.0,bus2=RML1010101255.1.2.0,Phases=2,Linecode=CABBTG05_4_2,Length=0.017000000,Units=km
new line.RML10101257 bus1=BBT4754275.1.2.0,bus2=RML1010101257.1.2.0,Phases=2,Linecode=CABBTG05_4_2,Length=0.017000000,Units=km
new line.RML10101258 bus1=BBT4753232.1.2.0,bus2=RML1010101258.1.2.0,Phases=2,Linecode=CABBTG05_4_2,Length=0.017000000,Units=km
new line.RML10101259 bus1=BBT4753715.1.2.0,bus2=RML1010101259.1.2.0,Phases=2,Linecode=CABBTG05_4_2,Length=0.017000000,Units=km
new line.RML10112302 bus1=BBT952897.1.2.0,bus2=RML1010112302.1.2.0,Phases=2,Linecode=CABBTG05_4_2,Length=0.017000000,Units=km
...
